<?xml version="1.0" encoding="UTF-8"?>

<!-- generated on 2025-05-27 12:01:08 by Eclipse SUMO netconvert Version 1.23.1
<netconvertConfiguration xmlns:xsi="http://www.w3.org/2001/XMLSchema-instance" xsi:noNamespaceSchemaLocation="http://sumo.dlr.de/xsd/netconvertConfiguration.xsd">

    <input>
        <type-files value="${SUMO_HOME}/data/typemap/osmNetconvert.typ.xml"/>
        <osm-files value="osm_bbox.osm.xml.gz"/>
    </input>

    <output>
        <output-file value="osm.net.xml.gz"/>
        <output.street-names value="true"/>
        <output.original-names value="true"/>
    </output>

    <projection>
        <proj.utm value="true"/>
    </projection>

    <processing>
        <geometry.remove value="true"/>
        <roundabouts.guess value="true"/>
    </processing>

    <tls_building>
        <tls.discard-simple value="true"/>
        <tls.join value="true"/>
        <tls.guess-signals value="true"/>
        <tls.default-type value="actuated"/>
    </tls_building>

    <ramp_guessing>
        <ramps.guess value="true"/>
    </ramp_guessing>

    <junctions>
        <junctions.join value="true"/>
        <junctions.corner-detail value="5"/>
    </junctions>

</netconvertConfiguration>
-->

<net version="1.20" junctionCornerDetail="5" limitTurnSpeed="5.50" xmlns:xsi="http://www.w3.org/2001/XMLSchema-instance" xsi:noNamespaceSchemaLocation="http://sumo.dlr.de/xsd/net_file.xsd">

    <location netOffset="-439787.63,-4479783.41" convBoundary="0.00,0.00,296.42,349.77" origBoundary="-3.710257,40.466551,-3.706787,40.469714" projParameter="+proj=utm +zone=30 +ellps=WGS84 +datum=WGS84 +units=m +no_defs"/>

    <type id="highway.cycleway" priority="1" numLanes="1" speed="5.56" allow="bicycle" oneway="0" width="2.00"/>
    <type id="highway.footway" priority="1" numLanes="1" speed="2.78" allow="pedestrian" oneway="1" width="2.00"/>
    <type id="highway.path" priority="1" numLanes="1" speed="5.56" allow="pedestrian bicycle" oneway="0" width="2.00"/>
    <type id="highway.pedestrian" priority="1" numLanes="1" speed="2.78" allow="pedestrian" oneway="1" width="2.00"/>
    <type id="highway.residential" priority="3" numLanes="1" speed="13.89" disallow="tram rail_urban rail rail_electric rail_fast ship container cable_car subway aircraft wheelchair scooter drone" oneway="0"/>
    <type id="highway.service" priority="1" numLanes="1" speed="5.56" allow="pedestrian delivery bicycle" oneway="0"/>
    <type id="highway.tertiary" priority="10" numLanes="1" speed="22.22" disallow="tram rail_urban rail rail_electric rail_fast ship container cable_car subway aircraft wheelchair scooter drone" oneway="0"/>
    <type id="highway.track" priority="1" numLanes="1" speed="5.56" allow="pedestrian motorcycle moped bicycle" oneway="0"/>

    <edge id=":11212493193_0" function="internal">
        <lane id=":11212493193_0_0" index="0" allow="pedestrian bicycle" speed="2.89" length="2.92" width="2.00" shape="100.70,27.23 100.67,28.13 100.38,28.60 99.82,28.65 99.00,28.28"/>
    </edge>
    <edge id=":2441684082_0" function="internal">
        <lane id=":2441684082_0_0" index="0" disallow="tram rail_urban rail rail_electric rail_fast ship container cable_car subway aircraft wheelchair scooter drone" speed="3.65" length="4.67" shape="5.71,324.36 4.45,325.06 3.55,325.05 3.03,324.33 2.86,322.90"/>
    </edge>
    <edge id=":2542469034_0" function="internal">
        <lane id=":2542469034_0_0" index="0" disallow="tram rail_urban rail rail_electric rail_fast ship container cable_car subway aircraft wheelchair scooter drone" speed="10.95" length="9.51" shape="193.72,187.23 192.67,184.71 191.43,183.24 189.73,182.14 187.26,180.75"/>
    </edge>
    <edge id=":2542469034_1" function="internal">
        <lane id=":2542469034_1_0" index="0" disallow="tram rail_urban rail rail_electric rail_fast ship container cable_car subway aircraft wheelchair scooter drone" speed="6.88" length="8.60" shape="200.23,179.17 198.19,180.66 196.94,182.33 196.46,184.19 196.77,186.23"/>
    </edge>
    <edge id=":2542469034_2" function="internal">
        <lane id=":2542469034_2_0" index="0" disallow="tram rail_urban rail rail_electric rail_fast ship container cable_car subway aircraft wheelchair scooter drone" speed="9.92" length="12.97" shape="200.23,179.17 196.44,180.99 193.01,181.86 189.95,181.78 187.26,180.75"/>
        <lane id=":2542469034_2_1" index="1" disallow="tram rail_urban rail rail_electric rail_fast ship container cable_car subway aircraft wheelchair scooter drone" speed="7.96" length="12.97" shape="199.06,175.75 196.61,177.93 193.97,178.95 191.13,178.81 188.08,177.51"/>
    </edge>
    <edge id=":2904742124_0" function="internal">
        <lane id=":2904742124_0_0" index="0" disallow="tram rail_urban rail rail_electric rail_fast ship container cable_car subway aircraft wheelchair scooter drone" speed="13.89" length="5.43" shape="147.95,40.77 147.36,35.31"/>
        <lane id=":2904742124_0_1" index="1" disallow="tram rail_urban rail rail_electric rail_fast ship container cable_car subway aircraft wheelchair scooter drone" speed="13.89" length="5.43" shape="151.13,40.37 150.55,35.03"/>
    </edge>
    <edge id=":2904742124_2" function="internal">
        <lane id=":2904742124_2_0" index="0" disallow="tram rail_urban rail rail_electric rail_fast ship container cable_car subway aircraft wheelchair scooter drone" speed="13.89" length="5.19" shape="156.92,34.47 157.47,39.57"/>
        <lane id=":2904742124_2_1" index="1" disallow="tram rail_urban rail rail_electric rail_fast ship container cable_car subway aircraft wheelchair scooter drone" speed="13.89" length="5.19" shape="153.73,34.75 154.30,39.97"/>
    </edge>
    <edge id=":31996234_0" function="internal">
        <lane id=":31996234_0_0" index="0" allow="pedestrian bicycle" speed="5.56" length="5.69" width="2.00" shape="30.99,324.85 29.74,325.99 28.91,326.79 28.13,327.65 27.06,328.96"/>
    </edge>
    <edge id=":31996234_1" function="internal">
        <lane id=":31996234_1_0" index="0" allow="pedestrian bicycle" speed="2.89" length="2.38" width="2.00" shape="30.99,324.85 30.10,324.99 29.58,324.79 29.42,324.25 29.51,323.90"/>
    </edge>
    <edge id=":31996234_4" function="internal">
        <lane id=":31996234_4_0" index="0" allow="pedestrian bicycle" speed="2.89" length="0.54" width="2.00" shape="29.51,323.90 29.64,323.37"/>
    </edge>
    <edge id=":31996234_2" function="internal">
        <lane id=":31996234_2_0" index="0" allow="pedestrian bicycle" speed="5.56" length="6.00" width="2.00" shape="25.50,327.70 26.63,326.33 27.45,325.42 28.33,324.57 29.64,323.37"/>
    </edge>
    <edge id=":31996234_3" function="internal">
        <lane id=":31996234_3_0" index="0" allow="pedestrian bicycle" speed="2.89" length="2.42" width="2.00" shape="25.50,327.70 26.36,327.43 26.91,327.55 27.14,328.06 27.10,328.46"/>
    </edge>
    <edge id=":31996234_5" function="internal">
        <lane id=":31996234_5_0" index="0" allow="pedestrian bicycle" speed="2.89" length="0.50" width="2.00" shape="27.10,328.46 27.06,328.96"/>
    </edge>
    <edge id=":3321769701_0" function="internal">
        <lane id=":3321769701_0_0" index="0" disallow="tram rail_urban rail rail_electric rail_fast ship container cable_car subway aircraft wheelchair scooter drone" speed="8.98" length="9.42" shape="189.62,152.18 190.55,154.01 192.03,155.58 194.07,156.89 196.66,157.92"/>
        <lane id=":3321769701_0_1" index="1" disallow="tram rail_urban rail rail_electric rail_fast ship container cable_car subway aircraft wheelchair scooter drone" speed="15.73" length="14.54" shape="186.58,153.20 188.44,156.79 190.78,158.51 193.74,159.80 197.47,162.06"/>
    </edge>
    <edge id=":3321769701_2" function="internal">
        <lane id=":3321769701_2_0" index="0" disallow="tram rail_urban rail rail_electric rail_fast ship container cable_car subway aircraft wheelchair scooter drone" speed="15.24" length="11.17" shape="180.31,166.15 181.06,162.92 181.48,160.63 181.37,158.37 180.51,155.23"/>
        <lane id=":3321769701_2_1" index="1" disallow="tram rail_urban rail rail_electric rail_fast ship container cable_car subway aircraft wheelchair scooter drone" speed="16.30" length="12.81" shape="180.31,166.15 181.63,162.56 183.14,160.11 184.05,157.70 183.55,154.21"/>
    </edge>
    <edge id=":3321769701_4" function="internal">
        <lane id=":3321769701_4_0" index="0" disallow="tram rail_urban rail rail_electric rail_fast ship container cable_car subway aircraft wheelchair scooter drone" speed="9.37" length="19.97" shape="180.31,166.15 182.32,160.93 185.72,157.81 190.50,156.81 196.66,157.92"/>
        <lane id=":3321769701_4_1" index="1" disallow="tram rail_urban rail rail_electric rail_fast ship container cable_car subway aircraft wheelchair scooter drone" speed="8.37" length="19.97" shape="183.14,167.40 186.03,162.45 189.38,159.91 193.19,159.78 197.47,162.06"/>
    </edge>
    <edge id=":416950494_0" function="internal">
        <lane id=":416950494_0_0" index="0" allow="pedestrian motorcycle moped bicycle" speed="3.65" length="4.67" shape="233.29,5.60 233.19,4.16 233.58,3.35 234.45,3.18 235.82,3.64"/>
    </edge>
    <edge id=":416950504_0" function="internal">
        <lane id=":416950504_0_0" index="0" allow="pedestrian motorcycle moped bicycle" speed="3.65" length="4.67" shape="253.09,16.58 253.76,17.86 253.73,18.75 252.99,19.26 251.55,19.39"/>
    </edge>
    <edge id=":4373628371_0" function="internal">
        <lane id=":4373628371_0_0" index="0" disallow="tram rail_urban rail rail_electric rail_fast ship container cable_car subway aircraft wheelchair scooter drone" speed="3.65" length="4.67" shape="278.18,66.60 279.44,67.30 279.91,68.06 279.58,68.89 278.45,69.79"/>
    </edge>
    <edge id=":4373700880_0" function="internal">
        <lane id=":4373700880_0_0" index="0" disallow="tram rail_urban rail rail_electric rail_fast ship container cable_car subway aircraft wheelchair scooter drone" speed="8.33" length="4.98" shape="231.08,159.35 235.86,157.93"/>
    </edge>
    <edge id=":4608187808_0" function="internal">
        <lane id=":4608187808_0_0" index="0" disallow="tram rail_urban rail rail_electric rail_fast ship container cable_car subway aircraft wheelchair scooter drone" speed="8.33" length="5.06" shape="123.95,199.11 120.15,202.45"/>
    </edge>
    <edge id=":4608187808_1" function="internal">
        <lane id=":4608187808_1_0" index="0" disallow="tram rail_urban rail rail_electric rail_fast ship container cable_car subway aircraft wheelchair scooter drone" speed="8.33" length="5.17" shape="118.00,200.09 121.87,196.67"/>
    </edge>
    <edge id=":4608256814_0" function="internal">
        <lane id=":4608256814_0_0" index="0" allow="pedestrian delivery bicycle" speed="3.65" length="4.67" shape="221.75,200.41 223.14,200.81 223.76,201.45 223.62,202.34 222.71,203.46"/>
    </edge>
    <edge id=":4608256815_0" function="internal">
        <lane id=":4608256815_0_0" index="0" allow="pedestrian delivery bicycle" speed="5.04" length="5.00" shape="221.32,203.90 220.09,204.49 219.34,205.33 219.07,206.43 219.30,207.78"/>
    </edge>
    <edge id=":4608256815_1" function="internal">
        <lane id=":4608256815_1_0" index="0" allow="pedestrian delivery bicycle" speed="3.65" length="4.67" shape="221.32,203.90 219.94,203.49 219.32,202.85 219.46,201.97 220.36,200.84"/>
    </edge>
    <edge id=":4608256815_2" function="internal">
        <lane id=":4608256815_2_0" index="0" allow="pedestrian delivery bicycle" speed="5.04" length="5.00" shape="216.47,198.82 217.06,200.06 217.91,200.80 219.01,201.07 220.36,200.84"/>
    </edge>
    <edge id=":4608256815_3" function="internal">
        <lane id=":4608256815_3_0" index="0" disallow="tram rail_urban rail rail_electric rail_fast ship container cable_car subway aircraft wheelchair scooter drone" speed="13.89" length="9.40" shape="216.47,198.82 219.30,207.78"/>
    </edge>
    <edge id=":4608256818_0" function="internal">
        <lane id=":4608256818_0_0" index="0" disallow="tram rail_urban rail rail_electric rail_fast ship container cable_car subway aircraft wheelchair scooter drone" speed="13.89" length="5.33" shape="237.60,264.69 239.57,269.65"/>
    </edge>
    <edge id=":4609444527_0" function="internal">
        <lane id=":4609444527_0_0" index="0" disallow="tram rail_urban rail rail_electric rail_fast ship container cable_car subway aircraft wheelchair scooter drone" speed="13.89" length="5.33" shape="179.71,152.82 178.06,147.72"/>
        <lane id=":4609444527_0_1" index="1" disallow="tram rail_urban rail rail_electric rail_fast ship container cable_car subway aircraft wheelchair scooter drone" speed="13.89" length="5.33" shape="182.74,151.81 181.11,146.77"/>
    </edge>
    <edge id=":4609444527_2" function="internal">
        <lane id=":4609444527_2_0" index="0" disallow="tram rail_urban rail rail_electric rail_fast ship container cable_car subway aircraft wheelchair scooter drone" speed="13.89" length="5.19" shape="187.23,144.87 188.81,149.78"/>
        <lane id=":4609444527_2_1" index="1" disallow="tram rail_urban rail rail_electric rail_fast ship container cable_car subway aircraft wheelchair scooter drone" speed="13.89" length="5.19" shape="184.17,145.82 185.78,150.79"/>
    </edge>
    <edge id=":4622021385_0" function="internal">
        <lane id=":4622021385_0_0" index="0" disallow="tram rail_urban rail rail_electric rail_fast ship container cable_car subway aircraft wheelchair scooter drone" speed="3.65" length="4.67" shape="150.10,5.47 150.93,4.29 151.75,3.92 152.53,4.34 153.30,5.56"/>
    </edge>
    <edge id=":50680070_0" function="internal">
        <lane id=":50680070_0_0" index="0" disallow="tram rail_urban rail rail_electric rail_fast ship container cable_car subway aircraft wheelchair scooter drone" speed="5.56" length="5.02" shape="218.65,265.07 217.15,260.28"/>
    </edge>
    <edge id=":50680070_1" function="internal">
        <lane id=":50680070_1_0" index="0" disallow="tram rail_urban rail rail_electric rail_fast ship container cable_car subway aircraft wheelchair scooter drone" speed="13.89" length="5.06" shape="220.19,259.30 221.71,264.13"/>
    </edge>
    <edge id=":5633301672_0" function="internal">
        <lane id=":5633301672_0_0" index="0" disallow="tram rail_urban rail rail_electric rail_fast ship container cable_car subway aircraft wheelchair scooter drone" speed="3.65" length="4.67" shape="265.98,345.94 266.46,347.30 266.30,348.18 265.50,348.58 264.06,348.50"/>
    </edge>
    <edge id=":5633367011_0" function="internal">
        <lane id=":5633367011_0_0" index="0" disallow="tram rail_urban rail rail_electric rail_fast ship container cable_car subway aircraft wheelchair scooter drone" speed="9.39" length="9.29" shape="185.13,179.47 182.59,178.15 180.27,177.38 178.18,177.16 176.32,177.49"/>
    </edge>
    <edge id=":5633367011_1" function="internal">
        <lane id=":5633367011_1_0" index="0" disallow="tram rail_urban rail rail_electric rail_fast ship container cable_car subway aircraft wheelchair scooter drone" speed="9.17" length="13.13" shape="185.13,179.47 182.27,177.18 180.47,174.39 179.74,171.10 180.06,167.31"/>
        <lane id=":5633367011_1_1" index="1" disallow="tram rail_urban rail rail_electric rail_fast ship container cable_car subway aircraft wheelchair scooter drone" speed="7.80" length="13.13" shape="187.91,177.41 184.90,175.17 183.09,172.79 182.47,170.26 183.06,167.58"/>
    </edge>
    <edge id=":5633367011_3" function="internal">
        <lane id=":5633367011_3_0" index="0" disallow="tram rail_urban rail rail_electric rail_fast ship container cable_car subway aircraft wheelchair scooter drone" speed="8.28" length="8.98" shape="175.28,174.46 176.90,173.56 178.24,172.06 179.29,169.98 180.06,167.31"/>
    </edge>
    <edge id=":5645815268_0" function="internal">
        <lane id=":5645815268_0_0" index="0" disallow="tram rail_urban rail rail_electric rail_fast ship container cable_car subway aircraft wheelchair scooter drone" speed="5.56" length="4.32" shape="195.11,191.53 193.79,187.42"/>
    </edge>
    <edge id=":5645815268_1" function="internal">
        <lane id=":5645815268_1_0" index="0" disallow="tram rail_urban rail rail_electric rail_fast ship container cable_car subway aircraft wheelchair scooter drone" speed="13.89" length="4.34" shape="196.83,186.42 198.16,190.55"/>
    </edge>
    <edge id=":5955612292_0" function="internal">
        <lane id=":5955612292_0_0" index="0" disallow="tram rail_urban rail rail_electric rail_fast ship container cable_car subway aircraft wheelchair scooter drone" speed="11.27" length="4.39" shape="204.87,169.99 205.27,171.12 205.95,171.70 206.80,172.21 207.71,173.14"/>
    </edge>
    <edge id=":5955612292_1" function="internal">
        <lane id=":5955612292_1_0" index="0" disallow="tram rail_urban rail rail_electric rail_fast ship container cable_car subway aircraft wheelchair scooter drone" speed="11.72" length="4.63" shape="204.87,169.99 204.92,171.37 204.66,172.31 204.19,173.22 203.64,174.55"/>
        <lane id=":5955612292_1_1" index="1" disallow="tram rail_urban rail rail_electric rail_fast ship container cable_car subway aircraft wheelchair scooter drone" speed="6.77" length="4.63" shape="201.70,170.45 201.71,171.40 201.45,172.39 200.93,173.41 200.15,174.46"/>
    </edge>
    <edge id=":60106802_0" function="internal">
        <lane id=":60106802_0_0" index="0" disallow="tram rail_urban rail rail_electric rail_fast ship container cable_car subway aircraft wheelchair scooter drone" speed="7.34" length="8.42" shape="202.24,162.38 203.94,164.22 205.71,165.37 207.54,165.84 209.45,165.62"/>
    </edge>
    <edge id=":60106802_1" function="internal">
        <lane id=":60106802_1_0" index="0" disallow="tram rail_urban rail rail_electric rail_fast ship container cable_car subway aircraft wheelchair scooter drone" speed="13.57" length="7.66" shape="202.24,162.38 203.57,164.31 204.22,165.80 204.53,167.43 204.84,169.79"/>
        <lane id=":60106802_1_1" index="1" disallow="tram rail_urban rail rail_electric rail_fast ship container cable_car subway aircraft wheelchair scooter drone" speed="12.99" length="7.66" shape="199.11,163.55 200.36,165.30 201.01,166.64 201.36,168.11 201.67,170.25"/>
    </edge>
    <edge id=":60106803_0" function="internal">
        <lane id=":60106803_0_0" index="0" disallow="tram rail_urban rail rail_electric rail_fast ship container cable_car subway aircraft wheelchair scooter drone" speed="13.89" length="9.50" shape="262.53,155.63 261.61,152.97 260.92,151.16 260.07,149.43 258.64,147.00"/>
    </edge>
    <edge id=":60106803_1" function="internal">
        <lane id=":60106803_1_0" index="0" disallow="tram rail_urban rail rail_electric rail_fast ship container cable_car subway aircraft wheelchair scooter drone" speed="5.59" length="7.61" shape="254.91,152.17 257.32,151.18 258.74,149.99 259.18,148.60 258.64,147.00"/>
    </edge>
    <edge id=":60107017_0" function="internal">
        <lane id=":60107017_0_0" index="0" disallow="tram rail_urban rail rail_electric rail_fast ship container cable_car subway aircraft wheelchair scooter drone" speed="13.89" length="5.98" shape="291.11,238.10 289.37,238.45 288.19,238.72 287.02,239.07 285.34,239.64"/>
    </edge>
    <edge id=":60107017_1" function="internal">
        <lane id=":60107017_1_0" index="0" disallow="tram rail_urban rail rail_electric rail_fast ship container cable_car subway aircraft wheelchair scooter drone" speed="5.22" length="4.97" shape="291.11,238.10 289.80,238.16 288.73,237.79 287.91,236.98 287.33,235.74"/>
    </edge>
    <edge id=":60107046_0" function="internal">
        <lane id=":60107046_0_0" index="0" disallow="tram rail_urban rail rail_electric rail_fast ship container cable_car subway aircraft wheelchair scooter drone" speed="6.45" length="9.04" shape="240.04,255.00 237.82,256.12 236.52,257.68 236.13,259.68 236.65,262.11"/>
    </edge>
    <edge id=":60107046_1" function="internal">
        <lane id=":60107046_1_0" index="0" disallow="tram rail_urban rail rail_electric rail_fast ship container cable_car subway aircraft wheelchair scooter drone" speed="13.89" length="11.28" shape="233.00,251.44 236.65,262.11"/>
    </edge>
    <edge id=":6289425250_0" function="internal">
        <lane id=":6289425250_0_0" index="0" disallow="tram rail_urban rail rail_electric rail_fast ship container cable_car subway aircraft wheelchair scooter drone" speed="13.89" length="5.16" shape="165.63,107.60 164.07,102.72"/>
        <lane id=":6289425250_0_1" index="1" disallow="tram rail_urban rail rail_electric rail_fast ship container cable_car subway aircraft wheelchair scooter drone" speed="13.89" length="5.16" shape="168.69,106.66 167.11,101.71"/>
    </edge>
    <edge id=":6289425250_2" function="internal">
        <lane id=":6289425250_2_0" index="0" disallow="tram rail_urban rail rail_electric rail_fast ship container cable_car subway aircraft wheelchair scooter drone" speed="13.89" length="5.30" shape="173.18,99.69 174.81,104.78"/>
        <lane id=":6289425250_2_1" index="1" disallow="tram rail_urban rail rail_electric rail_fast ship container cable_car subway aircraft wheelchair scooter drone" speed="13.89" length="5.30" shape="170.15,100.70 171.75,105.72"/>
    </edge>
    <edge id=":6331662382_0" function="internal">
        <lane id=":6331662382_0_0" index="0" disallow="tram rail_urban rail rail_electric rail_fast ship container cable_car subway aircraft wheelchair scooter drone" speed="13.89" length="5.05" shape="210.63,180.65 212.23,185.44"/>
    </edge>
    <edge id=":7603611563_0" function="internal">
        <lane id=":7603611563_0_0" index="0" disallow="tram rail_urban rail rail_electric rail_fast ship container cable_car subway aircraft wheelchair scooter drone" speed="13.89" length="7.48" shape="251.87,343.00 250.65,341.33 250.48,339.74 250.38,338.07 249.38,336.18"/>
    </edge>
    <edge id=":7603611563_1" function="internal">
        <lane id=":7603611563_1_0" index="0" disallow="tram rail_urban rail rail_electric rail_fast ship container cable_car subway aircraft wheelchair scooter drone" speed="18.05" length="6.31" shape="251.79,334.08 253.33,335.07 254.81,335.01 256.36,334.89 258.09,335.68"/>
        <lane id=":7603611563_1_1" index="1" disallow="tram rail_urban rail rail_electric rail_fast ship container cable_car subway aircraft wheelchair scooter drone" speed="18.05" length="6.31" shape="251.79,334.08 252.95,335.38 253.79,336.22 254.69,337.00 256.02,338.12"/>
    </edge>
    <edge id=":9289909102_0" function="internal">
        <lane id=":9289909102_0_0" index="0" disallow="tram rail_urban rail rail_electric rail_fast ship container cable_car subway aircraft wheelchair scooter drone" speed="13.89" length="4.44" shape="258.54,146.83 257.87,145.69 257.49,144.88 257.20,144.02 256.82,142.76"/>
    </edge>
    <edge id=":9294217234_0" function="internal">
        <lane id=":9294217234_0_0" index="0" allow="pedestrian bicycle" speed="2.89" length="2.93" width="2.00" shape="86.75,10.87 87.23,10.11 87.73,9.85 88.23,10.09 88.75,10.83"/>
    </edge>
    <edge id=":9306864051_0" function="internal">
        <lane id=":9306864051_0_0" index="0" allow="pedestrian bicycle" speed="2.89" length="2.92" width="2.00" shape="155.71,349.50 155.12,350.18 154.60,350.37 154.13,350.07 153.72,349.27"/>
    </edge>
    <edge id=":9306864097_0" function="internal">
        <lane id=":9306864097_0_0" index="0" allow="pedestrian bicycle" speed="2.89" length="2.92" width="2.00" shape="12.80,347.52 11.96,347.84 11.40,347.76 11.14,347.27 11.16,346.37"/>
    </edge>
    <edge id=":9307175908_0" function="internal">
        <lane id=":9307175908_0_0" index="0" disallow="tram rail_urban rail rail_electric rail_fast ship container cable_car subway aircraft wheelchair scooter drone" speed="8.33" length="6.67" shape="80.12,223.96 73.60,225.32"/>
    </edge>
    <edge id=":9307175908_1" function="internal">
        <lane id=":9307175908_1_0" index="0" disallow="tram rail_urban rail rail_electric rail_fast ship container cable_car subway aircraft wheelchair scooter drone" speed="8.33" length="6.73" shape="72.91,222.20 79.50,220.82"/>
    </edge>
    <edge id=":9900386616_0" function="internal">
        <lane id=":9900386616_0_0" index="0" disallow="tram rail_urban rail rail_electric rail_fast ship container cable_car subway aircraft wheelchair scooter drone" speed="13.89" length="5.01" shape="283.30,240.33 278.55,241.94"/>
    </edge>
    <edge id=":cluster_4373628370_9289909109_9289970272_0" function="internal">
        <lane id=":cluster_4373628370_9289909109_9289970272_0_0" index="0" disallow="tram rail_urban rail rail_electric rail_fast ship container cable_car subway aircraft wheelchair scooter drone" speed="13.89" length="12.89" shape="238.28,80.87 234.42,68.57"/>
    </edge>
    <edge id=":cluster_4373628370_9289909109_9289970272_1" function="internal">
        <lane id=":cluster_4373628370_9289909109_9289970272_1_0" index="0" disallow="tram rail_urban rail rail_electric rail_fast ship container cable_car subway aircraft wheelchair scooter drone" speed="7.87" length="15.88" shape="238.28,80.87 237.49,76.14 238.31,72.64 240.74,70.38 244.79,69.36"/>
    </edge>
    <edge id=":cluster_4373628370_9289909109_9289970272_2" function="internal">
        <lane id=":cluster_4373628370_9289909109_9289970272_2_0" index="0" disallow="tram rail_urban rail rail_electric rail_fast ship container cable_car subway aircraft wheelchair scooter drone" speed="8.14" length="2.89" shape="245.05,72.55 242.16,72.58"/>
    </edge>
    <edge id=":cluster_4373628370_9289909109_9289970272_3" function="internal">
        <lane id=":cluster_4373628370_9289909109_9289970272_3_0" index="0" disallow="tram rail_urban rail rail_electric rail_fast ship container cable_car subway aircraft wheelchair scooter drone" speed="3.65" length="1.28" shape="245.05,72.55 243.93,71.93"/>
    </edge>
    <edge id=":cluster_4373628370_9289909109_9289970272_4" function="internal">
        <lane id=":cluster_4373628370_9289909109_9289970272_4_0" index="0" disallow="tram rail_urban rail rail_electric rail_fast ship container cable_car subway aircraft wheelchair scooter drone" speed="8.14" length="9.33" shape="242.16,72.58 240.96,72.59 237.82,71.93 235.64,70.60 234.42,68.57"/>
    </edge>
    <edge id=":cluster_4373628370_9289909109_9289970272_5" function="internal">
        <lane id=":cluster_4373628370_9289909109_9289970272_5_0" index="0" disallow="tram rail_urban rail rail_electric rail_fast ship container cable_car subway aircraft wheelchair scooter drone" speed="3.65" length="3.39" shape="243.93,71.93 243.79,71.85 243.32,71.09 243.66,70.26 244.79,69.36"/>
    </edge>

    <edge id="-1210310625" from="11212493193" to="9294217234" priority="1" type="highway.path" shape="101.91,31.08 99.03,26.42 91.91,20.64 87.62,14.83 87.78,9.80 87.70,6.04">
        <lane id="-1210310625_0" index="0" allow="pedestrian bicycle" speed="5.56" length="22.50" width="2.00" shape="99.00,28.28 98.27,27.09 91.18,21.33 86.61,15.15 86.75,10.87">
            <param key="origId" value="1210310625"/>
        </lane>
    </edge>
    <edge id="-1219409110" from="7603611563" to="5633301672" name="Paseo de la Dirección" priority="10" type="highway.tertiary" shape="252.16,336.94 258.59,342.40 265.02,347.22">
        <lane id="-1219409110_0" index="0" disallow="tram rail_urban rail rail_electric rail_fast ship container cable_car subway aircraft wheelchair scooter drone" speed="22.22" length="12.57" shape="258.09,335.68 261.58,338.65 267.90,343.38">
            <param key="origId" value="1219409110"/>
        </lane>
        <lane id="-1219409110_1" index="1" disallow="tram rail_urban rail rail_electric rail_fast ship container cable_car subway aircraft wheelchair scooter drone" speed="22.22" length="12.57" shape="256.02,338.12 259.58,341.15 265.98,345.94">
            <param key="origId" value="1219409110"/>
        </lane>
    </edge>
    <edge id="-325530897#0" from="2904742124" to="4622021385" name="Paseo de la Dirección" priority="10" type="highway.tertiary" shape="152.36,37.39 151.78,30.84 151.43,24.50 151.38,16.10 151.70,5.51">
        <lane id="-325530897#0_0" index="0" disallow="tram rail_urban rail rail_electric rail_fast ship container cable_car subway aircraft wheelchair scooter drone" speed="13.89" length="29.79" shape="147.36,35.31 146.99,31.18 146.64,24.65 146.58,16.04 146.90,5.37">
            <param key="origId" value="325530897"/>
        </lane>
        <lane id="-325530897#0_1" index="1" disallow="tram rail_urban rail rail_electric rail_fast ship container cable_car subway aircraft wheelchair scooter drone" speed="13.89" length="29.79" shape="150.55,35.03 150.19,30.95 149.83,24.55 149.78,16.08 150.10,5.47">
            <param key="origId" value="325530897"/>
        </lane>
    </edge>
    <edge id="-325530897#1" from="6289425250" to="2904742124" name="Paseo de la Dirección" priority="10" type="highway.tertiary" shape="169.45,103.68 162.36,82.34 157.90,67.55 155.48,57.62 153.65,47.60 152.36,37.39">
        <lane id="-325530897#1_0" index="0" disallow="tram rail_urban rail rail_electric rail_fast ship container cable_car subway aircraft wheelchair scooter drone" speed="13.89" length="63.85" shape="164.07,102.72 157.78,83.79 153.27,68.81 150.78,58.62 148.91,48.34 147.95,40.77">
            <param key="origId" value="325530897"/>
        </lane>
        <lane id="-325530897#1_1" index="1" disallow="tram rail_urban rail rail_electric rail_fast ship container cable_car subway aircraft wheelchair scooter drone" speed="13.89" length="63.85" shape="167.11,101.71 160.84,82.82 156.36,67.97 153.92,57.96 152.07,47.85 151.13,40.37">
            <param key="origId" value="325530897"/>
        </lane>
    </edge>
    <edge id="-325530897#2" from="4609444527" to="6289425250" name="Paseo de la Dirección" priority="10" type="highway.tertiary" shape="183.40,148.74 175.27,122.61 169.45,103.68">